17

O         -0.03556        3.07271       -0.35905
S         -0.36411        2.06464        0.75554
C         -1.57223        1.20572       -0.31400
H         -1.09970        0.83133       -1.24730
H         -2.38938        1.90755       -0.58237
H         -2.02283        0.35888        0.24299
C          1.04676        0.98230        0.38792
C          2.28803        1.52425        0.00460
C          3.37309        0.68306       -0.25996
C          3.23262       -0.70159       -0.13881
C          2.00821       -1.24786        0.25210
C          0.91967       -0.41103        0.51890
H         -0.01957       -0.84914        0.82804
H          2.41651        2.59466       -0.08693
H          4.32444        1.10535       -0.55671
H          4.07432       -1.35073       -0.34325
H          1.90210       -2.32028        0.35155
